LTspice 24.0.12 for Windows
Circuit: * C:\tmp\NicE-Buoy\Simulate\HighSideSwitch.asc
Start Time: Mon Nov 24 21:44:59 2025
solver = Normal
Maximum thread count: 20
tnom = 27
temp = 27
method = modified trap
WARNING: Specified period is not longer than the sum of Trise, Tfall, and Ton for v1.  Increasing period to 25
Limiting fall time of source v1 to 4.9738e-15
WARNING: Node NC_02 is floating.
WARNING: Node NC_03 is floating.
WARNING: Node NC_04 is floating.

WARNING: Less than two connections to node nc_01.  This node is used by m3.
WARNING: Less than two connections to node nc_03.  This node is used by m3.
Direct Newton iteration for .op point succeeded.
Total elapsed time: 0.140 seconds.

