LTspice 24.0.12 for Windows
Circuit: * C:\tmp\NicE-Buoy\Simulate\ModRect.asc
Start Time: Wed Nov 20 15:02:16 2024
solver = Normal
Maximum thread count: 20
tnom = 27
temp = 27
method = modified trap
WARNING: Specified period is not longer than the sum of Trise, Tfall, and Ton for v1.  Increasing period to 0.04
WARNING: Node NC_02 is floating.
WARNING: Node NC_03 is floating.
WARNING: Node NC_04 is floating.

WARNING: Less than two connections to node nc_01.  This node is used by m3.
WARNING: Less than two connections to node nc_03.  This node is used by m3.
.OP point found by inspection.
Total elapsed time: 0.066 seconds.

